4
ammonia	Frequency:	23.14
N	-5.54458e-05	-5.38524e-05	0.0833981774	-0.04785946	-0.01061035	7.84e-06
H	-0.0125425073	-0.9387836693	-0.3146989172	-0.11412525	0.04973902	-0.14022397
H	0.8190727799	0.4584711217	-0.3148589375	0.35308026	-0.22829759	0.5740433
H	-0.8067748268	0.4800964	-0.3147303227	0.36021357	0.31529447	-0.43383089
4
ammonia	Frequency:	17.74
N	-5.54458e-05	-5.38524e-05	0.0833981774	-0.00227428	0.05634249	-9.6e-06
H	-0.0125425073	-0.9387836693	-0.3146989172	-0.16850581	-0.23043693	0.68145708
H	0.8190727799	0.4584711217	-0.3148589375	0.08674077	-0.38250589	-0.32216693
H	-0.8067748268	0.4800964	-0.3147303227	0.09064708	-0.08540145	-0.35922266
4
ammonia	Frequency:	13.09
N	-5.54458e-05	-5.38524e-05	0.0833981774	-0.03056978	0.01512187	5.06e-06
H	-0.0125425073	-0.9387836693	-0.3146989172	0.59426686	-0.06180331	0.1618051
H	0.8190727799	0.4584711217	-0.3148589375	-0.07587719	0.33713745	0.27757921
H	-0.8067748268	0.4800964	-0.3147303227	-0.08628387	-0.44275121	-0.43929226
4
ammonia	Frequency:	0.01
N	-5.54458e-05	-5.38524e-05	0.0833981774	0.00027328	8.034e-05	0.24234712
H	-0.0125425073	-0.9387836693	-0.3146989172	0.00024271	8.11e-05	0.24234684
H	0.8190727799	0.4584711217	-0.3148589375	0.00027319	5.981e-05	0.24232216
H	-0.8067748268	0.4800964	-0.3147303227	0.00027694	9.664e-05	0.24235887
4
ammonia	Frequency:	0.38
N	-5.54458e-05	-5.38524e-05	0.0833981774	0.19895287	0.13711344	-0.00026912
H	-0.0125425073	-0.9387836693	-0.3146989172	0.19453959	0.14062646	-0.00841471
H	0.8190727799	0.4584711217	-0.3148589375	0.2045479	0.1346715	0.00842982
H	-0.8067748268	0.4800964	-0.3147303227	0.20470073	0.14631357	-0.00082163
4
ammonia	Frequency:	0.40
N	-5.54458e-05	-5.38524e-05	0.0833981774	-0.13716762	0.19827171	8.84e-05
H	-0.0125425073	-0.9387836693	-0.3146989172	-0.13807848	0.20420659	-0.01387833
H	0.8190727799	0.4584711217	-0.3148589375	-0.14141863	0.20619496	0.00046677
H	-0.8067748268	0.4800964	-0.3147303227	-0.14147013	0.20230877	0.01367797
4
ammonia	Frequency:	1131.66
N	-5.54458e-05	-5.38524e-05	0.0833981774	-6.08e-06	-2.1e-06	-0.10589412
H	-0.0125425073	-0.9387836693	-0.3146989172	-0.00258871	-0.19553167	0.49041886
H	0.8190727799	0.4584711217	-0.3148589375	0.17078046	0.09551234	0.49042601
H	-0.8067748268	0.4800964	-0.3147303227	-0.16810773	0.10003937	0.49051633
4
ammonia	Frequency:	1726.01
N	-5.54458e-05	-5.38524e-05	0.0833981774	0.02377688	-0.05925268	-1.015e-05
H	-0.0125425073	-0.9387836693	-0.3146989172	-0.28452047	-0.12876521	0.23163588
H	0.8190727799	0.4584711217	-0.3148589375	-0.37206667	0.62700659	-0.03216722
H	-0.8067748268	0.4800964	-0.3147303227	0.32621765	0.32504715	-0.19933033
4
ammonia	Frequency:	1726.06
N	-5.54458e-05	-5.38524e-05	0.0833981774	-0.0592533	-0.02377834	8.2e-07
H	-0.0125425073	-0.9387836693	-0.3146989172	0.67764247	-0.06423059	0.09649157
H	0.8190727799	0.4584711217	-0.3148589375	-0.07818477	-0.15185486	-0.24874601
H	-0.8067748268	0.4800964	-0.3147303227	0.22383921	0.54647293	0.1522428
4
ammonia	Frequency:	3433.63
N	-5.54458e-05	-5.38524e-05	0.0833981774	-3.392e-05	1.57e-06	-0.03830323
H	-0.0125425073	-0.9387836693	-0.3146989172	0.00718281	0.54073981	0.17734199
H	0.8190727799	0.4584711217	-0.3148589375	-0.47168908	-0.26402118	0.17735649
H	-0.8067748268	0.4800964	-0.3147303227	0.46497775	-0.27674279	0.17749799
4
ammonia	Frequency:	3565.12
N	-5.54458e-05	-5.38524e-05	0.0833981774	-0.06499817	0.03852945	1.743e-05
H	-0.0125425073	-0.9387836693	-0.3146989172	-0.02319086	-0.35938885	-0.14800073
H	0.8190727799	0.4584711217	-0.3148589375	0.30680869	0.19279455	-0.1489899
H	-0.8067748268	0.4800964	-0.3147303227	0.61949335	-0.3687487	0.29674862
4
ammonia	Frequency:	3565.19
N	-5.54458e-05	-5.38524e-05	0.0833981774	-0.03852752	-0.06499696	1.486e-05
H	-0.0125425073	-0.9387836693	-0.3146989172	-0.00227519	0.62519297	0.25725878
H	0.8190727799	0.4584711217	-0.3148589375	0.54964992	0.29545572	-0.25689821
H	-0.8067748268	0.4800964	-0.3147303227	-0.0120581	-0.01755674	-0.00056875
